Date/Time:       2025-08-29 20:01:08 
Command line:    /Users/lila/Projects/Code/otr/tablemutant/.venv/bin/briefcase run -u --log

OS Release:      Darwin 24.5.0
OS Version:      Darwin Kernel Version 24.5.0: Tue Apr 22 20:42:11 PDT 2025; root:xnu-11417.121.6~4/RELEASE_ARM64_T6031
Architecture:    arm64
Platform:        macOS-15.5-arm64-arm-64bit

Python exe:      /Users/lila/Projects/Code/otr/tablemutant/.venv/bin/python3
Python version:  3.12.3 (main, Jun 11 2024, 14:15:30) [Clang 15.0.0 (clang-1500.3.9.4)]
Virtual env:     True
Conda env:       False

Briefcase:       0.3.24
Target platform: macOS
Target format:   app

Environment Variables:
	EDITOR=vim
	HOME=/Users/lila
	HOMEBREW_CELLAR=/opt/homebrew/Cellar
	HOMEBREW_PREFIX=/opt/homebrew
	HOMEBREW_REPOSITORY=/opt/homebrew
	INFOPATH=/opt/homebrew/share/info:
	LANG=en_US.UTF-8
	LESS=-R
	LOGNAME=lila
	LSCOLORS=Gxfxcxdxbxegedabagacad
	LS_COLORS=di=1;36:ln=35:so=32:pi=33:ex=31:bd=34;46:cd=34;43:su=30;41:sg=30;46:tw=30;42:ow=30;43
	OLDPWD=/Users/lila/Projects/Code/otr
	PAGER=less
	PATH=/Users/lila/Projects/Code/otr/tablemutant/.venv/bin:/opt/homebrew/bin:/opt/homebrew/sbin:/opt/homebrew/opt/libomp/bin:/opt/homebrew/opt/llvm/bin:/Users/lila/.bun/bin:/Users/lila/.asdf/shims:/usr/local/bin:/System/Cryptexes/App/usr/bin:/usr/bin:/bin:/usr/sbin:/sbin:/var/run/com.apple.security.cryptexd/codex.system/bootstrap/usr/local/bin:/var/run/com.apple.security.cryptexd/codex.system/bootstrap/usr/bin:/var/run/com.apple.security.cryptexd/codex.system/bootstrap/usr/appleinternal/bin:/Library/Apple/usr/bin:/Users/lila/.local/bin
	PS1=(tablemutant) ${ret_status}%{$fg[blue]%}${PROMPT_HOST}%{$fg_bold[green]%} %{$fg_bold[yellow]%}%2~ ${vcs_info_msg_0_}${dir_status}%{$reset_color%} 
	PWD=/Users/lila/Projects/Code/otr/tablemutant
	SHELL=/bin/zsh
	SHLVL=1
	SSH_AUTH_SOCK=/private/tmp/com.apple.launchd.wErltMT3DR/Listeners
	TERM=xterm-256color
	TERM_PROGRAM=Apple_Terminal
	TERM_PROGRAM_VERSION=455.1
	TERM_SESSION_ID=6625A708-4C5F-49CB-A10B-4E12584B34DF
	TMPDIR=/var/folders/rd/4ps353t10yb1b1dpfz5wbpj00000gn/T/
	USER=lila
	VIRTUAL_ENV=/Users/lila/Projects/Code/otr/tablemutant/.venv
	VIRTUAL_ENV_PROMPT=(tablemutant) 
	XPC_FLAGS=0x0
	XPC_SERVICE_NAME=0
	ZSH=/Users/lila/.oh-my-zsh
	_=/Users/lila/Projects/Code/otr/tablemutant/.venv/bin/briefcase
	__CFBundleIdentifier=com.apple.Terminal
	__CF_USER_TEXT_ENCODING=0x1F5:0x0:0x0

pyproject.toml:
[project]
name = "tablemutant"
version = "0.1.0"
description = "Add your description here"
readme = "README.md"
requires-python = ">=3.12"
license = { file = "LICENSE" }
dependencies = [
    "aiohttp",
    "chardet",
    "dspy",
    "huggingface_hub",
    "numpy",
    "polars",
    "pypdf",
    "scikit-learn",
    "scipy",
    "sentence-transformers",
    "toga",
    "tqdm",
]

[tool.briefcase]
project_name = "TableMutant"
bundle = "org.tablemutant"
version = "0.1.0"
url = "https://github.com/your-org/tablemutant"
author = "TableMutant"
author_email = "devnull@example.com"
formal_name = "TableMutant"
description = "Generate new columns in datasets using LLMs"

[tool.briefcase.app.tablemutant]
formal_name = "TableMutant"
bundle = "org.tablemutant"
version = "0.1.0"
description = "Generate new columns in datasets using LLMs"
sources = ["tablemutant"]
# Keep runtime framework minimal; app deps are in [project.dependencies]
requires = ["toga>=0.4.7", "std-nslog"]
# Entry point: module:function for the app startup
entry_point = "tablemutant.__main__:main"

# Test configuration
test_sources = ["tests"]
test_requires = [
    "pytest>=7.0.0",
    "pytest-asyncio>=0.21.0"
]

# Generic icon (fallback). Per-platform variants override this.
icon = "resources/icons/tablemutant"

# macOS specific settings
[tool.briefcase.app.tablemutant.macOS]
requires = ["toga-cocoa>=0.4.7"]
icon = "resources/icons/macos"
min_os_version = "12.0"
universal_build = false

# Linux settings
[tool.briefcase.app.tablemutant.linux]
requires = ["toga-gtk>=0.4.7"]
icon = "resources/icons/linux"

# Windows settings
[tool.briefcase.app.tablemutant.windows]
requires = ["toga-winforms>=0.4.7"]
icon = "resources/icons/windows"

# iOS (optional future target)
[tool.briefcase.app.tablemutant.iOS]
requires = ["toga-iOS>=0.4.7"]
icon = "resources/icons/ios"

# Android (optional future target)
[tool.briefcase.app.tablemutant.android]
requires = ["toga-android>=0.4.7"]
icon = "resources/icons/android"

Briefcase Log:
[19:59:51]                                                                                                                                                              update.py:60
           [tablemutant] Updating application code...                                                                                                                   update.py:60
           Installing tablemutant... started                                                                                                                           create.py:733
           Installing tablemutant... done                                                                                                                              create.py:733
                                                                                                                                                                        update.py:89
           [tablemutant] Removing unneeded app content...                                                                                                               update.py:89
           Removing unneeded app bundle content... started                                                                                                             create.py:896
[19:59:52] Removing directory TableMutant.app/Contents/Resources/app/tablemutant/__pycache__                                                                           create.py:903
           Removing directory TableMutant.app/Contents/Resources/app/tablemutant/ui/__pycache__                                                                        create.py:903
           Removing directory TableMutant.app/Contents/Resources/app/tablemutant/core/__pycache__                                                                      create.py:903
           Removing directory TableMutant.app/Contents/Resources/app/tablemutant/ui/windows/__pycache__                                                                create.py:903
           Removing unneeded app bundle content... done                                                                                                                create.py:896
                                                                                                                                                                        update.py:92
           [tablemutant] Application updated.                                                                                                                           update.py:92
                                                                                                                                                                   subprocess.py:838
           >>> Running Command:                                                                                                                                    subprocess.py:838
           >>>     xattr -p 'com.apple.fileprovider.fpfs#P' /Users/lila/Projects/Code/otr/tablemutant/build/tablemutant/macos/app/TableMutant.app                  subprocess.py:838
           >>> Working Directory:                                                                                                                                  subprocess.py:838
           >>>     /Users/lila/Projects/Code/otr/tablemutant                                                                                                       subprocess.py:838
           >>> Command Output:                                                                                                                                     subprocess.py:838
           >>>     xattr: /Users/lila/Projects/Code/otr/tablemutant/build/tablemutant/macos/app/TableMutant.app: No such xattr: com.apple.fileprovider.fpfs#P      subprocess.py:838
           >>> Return code: 1                                                                                                                                      subprocess.py:838
                                                                                                                                                                   subprocess.py:838
                                                                                                                                                                          app.py:114
           [tablemutant] Building App...                                                                                                                                  app.py:114
           Ensuring stub binary is thin... started                                                                                                                        app.py:123
                                                                                                                                                                   subprocess.py:838
           >>> Running Command:                                                                                                                                    subprocess.py:838
           >>>     lipo -info /Users/lila/Projects/Code/otr/tablemutant/build/tablemutant/macos/app/TableMutant.app/Contents/MacOS/TableMutant                     subprocess.py:838
           >>> Working Directory:                                                                                                                                  subprocess.py:838
           >>>     /Users/lila/Projects/Code/otr/tablemutant                                                                                                       subprocess.py:838
           >>> Command Output:                                                                                                                                     subprocess.py:838
           >>>     Non-fat file: /Users/lila/Projects/Code/otr/tablemutant/build/tablemutant/macos/app/TableMutant.app/Contents/MacOS/TableMutant is architecture: subprocess.py:838
           arm64                                                                                                                                                                    
           >>> Return code: 0                                                                                                                                      subprocess.py:838
                                                                                                                                                                   subprocess.py:838
           /Users/lila/Projects/Code/otr/tablemutant/build/tablemutant/macos/app/TableMutant.app/Contents/MacOS/TableMutant is already thin.                             utils.py:92
           Ensuring stub binary is thin... done                                                                                                                           app.py:123
                                                                                                                                                                          app.py:140
           [tablemutant] Ad-hoc signing app...                                                                                                                            app.py:140
[19:59:54] Signing build/tablemutant/macos/app/TableMutant.app/Contents/Resources/app_packages/yarl/_quoting_c.cpython-312-darwin.so                                 __init__.py:719
                                                                                                                                                                   subprocess.py:838
           >>> Running Command:                                                                                                                                    subprocess.py:838
           >>>     codesign                                                                                                                                        subprocess.py:838
           /Users/lila/Projects/Code/otr/tablemutant/build/tablemutant/macos/app/TableMutant.app/Contents/Resources/app_packages/yarl/_quoting_c.cpython-312-darwi                  
           n.so --sign - --force --entitlements /Users/lila/Projects/Code/otr/tablemutant/build/tablemutant/macos/app/Entitlements.plist                                            
           >>> Working Directory:                                                                                                                                  subprocess.py:838
           >>>     /Users/lila/Projects/Code/otr/tablemutant                                                                                                       subprocess.py:838
           >>> Return code: 0                                                                                                                                      subprocess.py:838
                                                                                                                                                                   subprocess.py:838
           Signing build/tablemutant/macos/app/TableMutant.app/Contents/Resources/app_packages/yaml/_yaml.cpython-312-darwin.so                                      __init__.py:719
                                                                                                                                                                   subprocess.py:838
           >>> Running Command:                                                                                                                                    subprocess.py:838
           >>>     codesign                                                                                                                                        subprocess.py:838
           /Users/lila/Projects/Code/otr/tablemutant/build/tablemutant/macos/app/TableMutant.app/Contents/Resources/app_packages/yaml/_yaml.cpython-312-darwin.so                   
           --sign - --force --entitlements /Users/lila/Projects/Code/otr/tablemutant/build/tablemutant/macos/app/Entitlements.plist                                                 
           >>> Working Directory:                                                                                                                                  subprocess.py:838
           >>>     /Users/lila/Projects/Code/otr/tablemutant                                                                                                       subprocess.py:838
           >>> Return code: 0                                                                                                                                      subprocess.py:838
                                                                                                                                                                   subprocess.py:838
           Signing build/tablemutant/macos/app/TableMutant.app/Contents/Resources/app_packages/xxhash/_xxhash.cpython-312-darwin.so                                  __init__.py:719
                                                                                                                                                                   subprocess.py:838
           >>> Running Command:                                                                                                                                    subprocess.py:838
           >>>     codesign                                                                                                                                        subprocess.py:838
           /Users/lila/Projects/Code/otr/tablemutant/build/tablemutant/macos/app/TableMutant.app/Contents/Resources/app_packages/xxhash/_xxhash.cpython-312-darwin                  
           .so --sign - --force --entitlements /Users/lila/Projects/Code/otr/tablemutant/build/tablemutant/macos/app/Entitlements.plist                                             
           >>> Working Directory:                                                                                                                                  subprocess.py:838
           >>>     /Users/lila/Projects/Code/otr/tablemutant                                                                                                       subprocess.py:838
           >>> Return code: 0                                                                                                                                      subprocess.py:838
                                                                                                                                                                   subprocess.py:838
           Signing build/tablemutant/macos/app/TableMutant.app/Contents/Resources/app_packages/torch/lib/libtorch_python.dylib                                       __init__.py:719
                                                                                                                                                                   subprocess.py:838
           >>> Running Command:                                                                                                                                    subprocess.py:838
           >>>     codesign                                                                                                                                        subprocess.py:838
           /Users/lila/Projects/Code/otr/tablemutant/build/tablemutant/macos/app/TableMutant.app/Contents/Resources/app_packages/torch/lib/libtorch_python.dylib                    
           --sign - --force --entitlements /Users/lila/Projects/Code/otr/tablemutant/build/tablemutant/macos/app/Entitlements.plist                                                 
           >>> Working Directory:                                                                                                                                  subprocess.py:838
           >>>     /Users/lila/Projects/Code/otr/tablemutant                                                                                                       subprocess.py:838
           Signing build/tablemutant/macos/app/TableMutant.app/Contents/Resources/app_packages/torch/lib/libtorch_global_deps.dylib                                  __init__.py:719
                                                                                                                                                                   subprocess.py:838
           >>> Running Command:                                                                                                                                    subprocess.py:838
           >>>     codesign                                                                                                                                        subprocess.py:838
           /Users/lila/Projects/Code/otr/tablemutant/build/tablemutant/macos/app/TableMutant.app/Contents/Resources/app_packages/torch/lib/libtorch_global_deps.dy                  
           lib --sign - --force --entitlements /Users/lila/Projects/Code/otr/tablemutant/build/tablemutant/macos/app/Entitlements.plist                                             
           >>> Working Directory:                                                                                                                                  subprocess.py:838
           >>>     /Users/lila/Projects/Code/otr/tablemutant                                                                                                       subprocess.py:838
           Signing build/tablemutant/macos/app/TableMutant.app/Contents/Resources/app_packages/torch/lib/libtorch_cpu.dylib                                          __init__.py:719
                                                                                                                                                                   subprocess.py:838
           >>> Running Command:                                                                                                                                    subprocess.py:838
           >>>     codesign                                                                                                                                        subprocess.py:838
           /Users/lila/Projects/Code/otr/tablemutant/build/tablemutant/macos/app/TableMutant.app/Contents/Resources/app_packages/torch/lib/libtorch_cpu.dylib                       
           --sign - --force --entitlements /Users/lila/Projects/Code/otr/tablemutant/build/tablemutant/macos/app/Entitlements.plist                                                 
           >>> Working Directory:                                                                                                                                  subprocess.py:838
           >>>     /Users/lila/Projects/Code/otr/tablemutant                                                                                                       subprocess.py:838
           Signing build/tablemutant/macos/app/TableMutant.app/Contents/Resources/app_packages/torch/lib/libtorch.dylib                                              __init__.py:719
                                                                                                                                                                   subprocess.py:838
           >>> Running Command:                                                                                                                                    subprocess.py:838
           >>>     codesign                                                                                                                                        subprocess.py:838
           /Users/lila/Projects/Code/otr/tablemutant/build/tablemutant/macos/app/TableMutant.app/Contents/Resources/app_packages/torch/lib/libtorch.dylib --sign -                  
           --force --entitlements /Users/lila/Projects/Code/otr/tablemutant/build/tablemutant/macos/app/Entitlements.plist                                                          
           >>> Working Directory:                                                                                                                                  subprocess.py:838
           >>>     /Users/lila/Projects/Code/otr/tablemutant                                                                                                       subprocess.py:838
           Signing build/tablemutant/macos/app/TableMutant.app/Contents/Resources/app_packages/torch/lib/libshm.dylib                                                __init__.py:719
                                                                                                                                                                   subprocess.py:838
           >>> Running Command:                                                                                                                                    subprocess.py:838
           >>>     codesign                                                                                                                                        subprocess.py:838
           /Users/lila/Projects/Code/otr/tablemutant/build/tablemutant/macos/app/TableMutant.app/Contents/Resources/app_packages/torch/lib/libshm.dylib --sign -                    
           --force --entitlements /Users/lila/Projects/Code/otr/tablemutant/build/tablemutant/macos/app/Entitlements.plist                                                          
           Signing build/tablemutant/macos/app/TableMutant.app/Contents/Resources/app_packages/torch/lib/libomp.dylib                                                __init__.py:719
                                                                                                                                                                   subprocess.py:838
           >>> Running Command:                                                                                                                                    subprocess.py:838
           >>>     codesign                                                                                                                                        subprocess.py:838
           /Users/lila/Projects/Code/otr/tablemutant/build/tablemutant/macos/app/TableMutant.app/Contents/Resources/app_packages/torch/lib/libomp.dylib --sign -                    
           --force --entitlements /Users/lila/Projects/Code/otr/tablemutant/build/tablemutant/macos/app/Entitlements.plist                                                          
           >>> Working Directory:                                                                                                                                  subprocess.py:838
           >>>     /Users/lila/Projects/Code/otr/tablemutant                                                                                                       subprocess.py:838
           >>> Working Directory:                                                                                                                                  subprocess.py:838
           >>>     /Users/lila/Projects/Code/otr/tablemutant                                                                                                       subprocess.py:838
           Signing build/tablemutant/macos/app/TableMutant.app/Contents/Resources/app_packages/torch/lib/libc10.dylib                                                __init__.py:719
                                                                                                                                                                   subprocess.py:838
           >>> Running Command:                                                                                                                                    subprocess.py:838
           >>>     codesign                                                                                                                                        subprocess.py:838
           /Users/lila/Projects/Code/otr/tablemutant/build/tablemutant/macos/app/TableMutant.app/Contents/Resources/app_packages/torch/lib/libc10.dylib --sign -                    
           --force --entitlements /Users/lila/Projects/Code/otr/tablemutant/build/tablemutant/macos/app/Entitlements.plist                                                          
           >>> Working Directory:                                                                                                                                  subprocess.py:838
           >>>     /Users/lila/Projects/Code/otr/tablemutant                                                                                                       subprocess.py:838
[19:59:55] >>> Return code: 0                                                                                                                                      subprocess.py:838
                                                                                                                                                                   subprocess.py:838
           >>> Return code: 0                                                                                                                                      subprocess.py:838
                                                                                                                                                                   subprocess.py:838
           >>> Return code: 0                                                                                                                                      subprocess.py:838
                                                                                                                                                                   subprocess.py:838
           >>> Return code: 0                                                                                                                                      subprocess.py:838
           >>> Return code: 0                                                                                                                                      subprocess.py:838
                                                                                                                                                                   subprocess.py:838
                                                                                                                                                                   subprocess.py:838
           >>> Return code: 0                                                                                                                                      subprocess.py:838
                                                                                                                                                                   subprocess.py:838
           >>> Return code: 0                                                                                                                                      subprocess.py:838
                                                                                                                                                                   subprocess.py:838
           Signing build/tablemutant/macos/app/TableMutant.app/Contents/Resources/app_packages/torch/bin/torch_shm_manager                                           __init__.py:719
                                                                                                                                                                   subprocess.py:838
           >>> Running Command:                                                                                                                                    subprocess.py:838
           >>>     codesign                                                                                                                                        subprocess.py:838
           /Users/lila/Projects/Code/otr/tablemutant/build/tablemutant/macos/app/TableMutant.app/Contents/Resources/app_packages/torch/bin/torch_shm_manager                        
           --sign - --force --entitlements /Users/lila/Projects/Code/otr/tablemutant/build/tablemutant/macos/app/Entitlements.plist                                                 
           >>> Working Directory:                                                                                                                                  subprocess.py:838
           >>>     /Users/lila/Projects/Code/otr/tablemutant                                                                                                       subprocess.py:838
           Signing build/tablemutant/macos/app/TableMutant.app/Contents/Resources/app_packages/torch/bin/protoc-3.13.0.0                                             __init__.py:719
                                                                                                                                                                   subprocess.py:838
           >>> Running Command:                                                                                                                                    subprocess.py:838
           >>>     codesign                                                                                                                                        subprocess.py:838
           /Users/lila/Projects/Code/otr/tablemutant/build/tablemutant/macos/app/TableMutant.app/Contents/Resources/app_packages/torch/bin/protoc-3.13.0.0 --sign                   
           - --force --entitlements /Users/lila/Projects/Code/otr/tablemutant/build/tablemutant/macos/app/Entitlements.plist                                                        
           >>> Working Directory:                                                                                                                                  subprocess.py:838
           Signing build/tablemutant/macos/app/TableMutant.app/Contents/Resources/app_packages/torch/bin/protoc                                                      __init__.py:719
                                                                                                                                                                   subprocess.py:838
           >>>     /Users/lila/Projects/Code/otr/tablemutant                                                                                                       subprocess.py:838
           >>> Running Command:                                                                                                                                    subprocess.py:838
           >>>     codesign /Users/lila/Projects/Code/otr/tablemutant/build/tablemutant/macos/app/TableMutant.app/Contents/Resources/app_packages/torch/bin/protoc subprocess.py:838
           --sign - --force --entitlements /Users/lila/Projects/Code/otr/tablemutant/build/tablemutant/macos/app/Entitlements.plist                                                 
           >>> Working Directory:                                                                                                                                  subprocess.py:838
           >>>     /Users/lila/Projects/Code/otr/tablemutant                                                                                                       subprocess.py:838
           >>> Return code: 0                                                                                                                                      subprocess.py:838
                                                                                                                                                                   subprocess.py:838
           >>> Return code: 0                                                                                                                                      subprocess.py:838
                                                                                                                                                                   subprocess.py:838
           >>> Return code: 0                                                                                                                                      subprocess.py:838
                                                                                                                                                                   subprocess.py:838
           Signing build/tablemutant/macos/app/TableMutant.app/Contents/Resources/app_packages/torch/_C.cpython-312-darwin.so                                        __init__.py:719
                                                                                                                                                                   subprocess.py:838
           >>> Running Command:                                                                                                                                    subprocess.py:838
           >>>     codesign                                                                                                                                        subprocess.py:838
           /Users/lila/Projects/Code/otr/tablemutant/build/tablemutant/macos/app/TableMutant.app/Contents/Resources/app_packages/torch/_C.cpython-312-darwin.so                     
           --sign - --force --entitlements /Users/lila/Projects/Code/otr/tablemutant/build/tablemutant/macos/app/Entitlements.plist                                                 
           >>> Working Directory:                                                                                                                                  subprocess.py:838
           >>>     /Users/lila/Projects/Code/otr/tablemutant                                                                                                       subprocess.py:838
           >>> Return code: 0                                                                                                                                      subprocess.py:838
                                                                                                                                                                   subprocess.py:838
           Signing build/tablemutant/macos/app/TableMutant.app/Contents/Resources/app_packages/tokenizers/tokenizers.abi3.so                                         __init__.py:719
                                                                                                                                                                   subprocess.py:838
           >>> Running Command:                                                                                                                                    subprocess.py:838
           >>>     codesign                                                                                                                                        subprocess.py:838
           /Users/lila/Projects/Code/otr/tablemutant/build/tablemutant/macos/app/TableMutant.app/Contents/Resources/app_packages/tokenizers/tokenizers.abi3.so                      
           --sign - --force --entitlements /Users/lila/Projects/Code/otr/tablemutant/build/tablemutant/macos/app/Entitlements.plist                                                 
           >>> Working Directory:                                                                                                                                  subprocess.py:838
           >>>     /Users/lila/Projects/Code/otr/tablemutant                                                                                                       subprocess.py:838
           >>> Return code: 0                                                                                                                                      subprocess.py:838
                                                                                                                                                                   subprocess.py:838
           Signing build/tablemutant/macos/app/TableMutant.app/Contents/Resources/app_packages/tiktoken/_tiktoken.cpython-312-darwin.so                              __init__.py:719
                                                                                                                                                                   subprocess.py:838
           >>> Running Command:                                                                                                                                    subprocess.py:838
           >>>     codesign                                                                                                                                        subprocess.py:838
           /Users/lila/Projects/Code/otr/tablemutant/build/tablemutant/macos/app/TableMutant.app/Contents/Resources/app_packages/tiktoken/_tiktoken.cpython-312-da                  
           rwin.so --sign - --force --entitlements /Users/lila/Projects/Code/otr/tablemutant/build/tablemutant/macos/app/Entitlements.plist                                         
           >>> Working Directory:                                                                                                                                  subprocess.py:838
           >>>     /Users/lila/Projects/Code/otr/tablemutant                                                                                                       subprocess.py:838
           >>> Return code: 0                                                                                                                                      subprocess.py:838
                                                                                                                                                                   subprocess.py:838
           Signing build/tablemutant/macos/app/TableMutant.app/Contents/Resources/app_packages/sqlalchemy/cyextension/util.cpython-312-darwin.so                     __init__.py:719
                                                                                                                                                                   subprocess.py:838
           >>> Running Command:                                                                                                                                    subprocess.py:838
           >>>     codesign                                                                                                                                        subprocess.py:838
           /Users/lila/Projects/Code/otr/tablemutant/build/tablemutant/macos/app/TableMutant.app/Contents/Resources/app_packages/sqlalchemy/cyextension/util.cpyth                  
           on-312-darwin.so --sign - --force --entitlements /Users/lila/Projects/Code/otr/tablemutant/build/tablemutant/macos/app/Entitlements.plist                                
           Signing build/tablemutant/macos/app/TableMutant.app/Contents/Resources/app_packages/sqlalchemy/cyextension/resultproxy.cpython-312-darwin.so              __init__.py:719
                                                                                                                                                                   subprocess.py:838
           >>> Running Command:                                                                                                                                    subprocess.py:838
           >>>     codesign                                                                                                                                        subprocess.py:838
           /Users/lila/Projects/Code/otr/tablemutant/build/tablemutant/macos/app/TableMutant.app/Contents/Resources/app_packages/sqlalchemy/cyextension/resultprox                  
           y.cpython-312-darwin.so --sign - --force --entitlements /Users/lila/Projects/Code/otr/tablemutant/build/tablemutant/macos/app/Entitlements.plist                         
           >>> Working Directory:                                                                                                                                  subprocess.py:838
           >>>     /Users/lila/Projects/Code/otr/tablemutant                                                                                                       subprocess.py:838
           Signing build/tablemutant/macos/app/TableMutant.app/Contents/Resources/app_packages/sqlalchemy/cyextension/processors.cpython-312-darwin.so               __init__.py:719
                                                                                                                                                                   subprocess.py:838
           >>> Running Command:                                                                                                                                    subprocess.py:838
           >>>     codesign                                                                                                                                        subprocess.py:838
           /Users/lila/Projects/Code/otr/tablemutant/build/tablemutant/macos/app/TableMutant.app/Contents/Resources/app_packages/sqlalchemy/cyextension/processors                  
           .cpython-312-darwin.so --sign - --force --entitlements /Users/lila/Projects/Code/otr/tablemutant/build/tablemutant/macos/app/Entitlements.plist                          
           >>> Working Directory:                                                                                                                                  subprocess.py:838
           >>>     /Users/lila/Projects/Code/otr/tablemutant                                                                                                       subprocess.py:838
           Signing build/tablemutant/macos/app/TableMutant.app/Contents/Resources/app_packages/sqlalchemy/cyextension/immutabledict.cpython-312-darwin.so            __init__.py:719
                                                                                                                                                                   subprocess.py:838
           >>> Running Command:                                                                                                                                    subprocess.py:838
           >>>     codesign                                                                                                                                        subprocess.py:838
           /Users/lila/Projects/Code/otr/tablemutant/build/tablemutant/macos/app/TableMutant.app/Contents/Resources/app_packages/sqlalchemy/cyextension/immutabled                  
           ict.cpython-312-darwin.so --sign - --force --entitlements /Users/lila/Projects/Code/otr/tablemutant/build/tablemutant/macos/app/Entitlements.plist                       
           >>> Working Directory:                                                                                                                                  subprocess.py:838
           >>>     /Users/lila/Projects/Code/otr/tablemutant                                                                                                       subprocess.py:838
           >>> Working Directory:                                                                                                                                  subprocess.py:838
           >>>     /Users/lila/Projects/Code/otr/tablemutant                                                                                                       subprocess.py:838
           Signing build/tablemutant/macos/app/TableMutant.app/Contents/Resources/app_packages/sqlalchemy/cyextension/collections.cpython-312-darwin.so              __init__.py:719
                                                                                                                                                                   subprocess.py:838
           >>> Running Command:                                                                                                                                    subprocess.py:838
           >>>     codesign                                                                                                                                        subprocess.py:838
           /Users/lila/Projects/Code/otr/tablemutant/build/tablemutant/macos/app/TableMutant.app/Contents/Resources/app_packages/sqlalchemy/cyextension/collection                  
           s.cpython-312-darwin.so --sign - --force --entitlements /Users/lila/Projects/Code/otr/tablemutant/build/tablemutant/macos/app/Entitlements.plist                         
           >>> Working Directory:                                                                                                                                  subprocess.py:838
           >>>     /Users/lila/Projects/Code/otr/tablemutant                                                                                                       subprocess.py:838
           >>> Return code: 0                                                                                                                                      subprocess.py:838
                                                                                                                                                                   subprocess.py:838
           >>> Return code: 0                                                                                                                                      subprocess.py:838
                                                                                                                                                                   subprocess.py:838
           >>> Return code: 0                                                                                                                                      subprocess.py:838
                                                                                                                                                                   subprocess.py:838
           >>> Return code: 0                                                                                                                                      subprocess.py:838
                                                                                                                                                                   subprocess.py:838
           >>> Return code: 0                                                                                                                                      subprocess.py:838
                                                                                                                                                                   subprocess.py:838
           Signing build/tablemutant/macos/app/TableMutant.app/Contents/Resources/app_packages/sklearn/utils/sparsefuncs_fast.cpython-312-darwin.so                  __init__.py:719
                                                                                                                                                                   subprocess.py:838
           >>> Running Command:                                                                                                                                    subprocess.py:838
           >>>     codesign                                                                                                                                        subprocess.py:838
           /Users/lila/Projects/Code/otr/tablemutant/build/tablemutant/macos/app/TableMutant.app/Contents/Resources/app_packages/sklearn/utils/sparsefuncs_fast.cp                  
           ython-312-darwin.so --sign - --force --entitlements /Users/lila/Projects/Code/otr/tablemutant/build/tablemutant/macos/app/Entitlements.plist                             
           Signing build/tablemutant/macos/app/TableMutant.app/Contents/Resources/app_packages/sklearn/utils/murmurhash.cpython-312-darwin.so                        __init__.py:719
                                                                                                                                                                   subprocess.py:838
           >>> Running Command:                                                                                                                                    subprocess.py:838
           >>>     codesign                                                                                                                                        subprocess.py:838
           /Users/lila/Projects/Code/otr/tablemutant/build/tablemutant/macos/app/TableMutant.app/Contents/Resources/app_packages/sklearn/utils/murmurhash.cpython-                  
           312-darwin.so --sign - --force --entitlements /Users/lila/Projects/Code/otr/tablemutant/build/tablemutant/macos/app/Entitlements.plist                                   
           >>> Working Directory:                                                                                                                                  subprocess.py:838
           >>>     /Users/lila/Projects/Code/otr/tablemutant                                                                                                       subprocess.py:838
           >>> Working Directory:                                                                                                                                  subprocess.py:838
           >>>     /Users/lila/Projects/Code/otr/tablemutant                                                                                                       subprocess.py:838
           Signing build/tablemutant/macos/app/TableMutant.app/Contents/Resources/app_packages/sklearn/utils/arrayfuncs.cpython-312-darwin.so                        __init__.py:719
                                                                                                                                                                   subprocess.py:838
           >>> Running Command:                                                                                                                                    subprocess.py:838
           >>>     codesign                                                                                                                                        subprocess.py:838
           /Users/lila/Projects/Code/otr/tablemutant/build/tablemutant/macos/app/TableMutant.app/Contents/Resources/app_packages/sklearn/utils/arrayfuncs.cpython-                  
           312-darwin.so --sign - --force --entitlements /Users/lila/Projects/Code/otr/tablemutant/build/tablemutant/macos/app/Entitlements.plist                                   
           Signing build/tablemutant/macos/app/TableMutant.app/Contents/Resources/app_packages/sklearn/utils/_weight_vector.cpython-312-darwin.so                    __init__.py:719
                                                                                                                                                                   subprocess.py:838
           >>> Running Command:                                                                                                                                    subprocess.py:838
           >>>     codesign                                                                                                                                        subprocess.py:838
           /Users/lila/Projects/Code/otr/tablemutant/build/tablemutant/macos/app/TableMutant.app/Contents/Resources/app_packages/sklearn/utils/_weight_vector.cpyt                  
           hon-312-darwin.so --sign - --force --entitlements /Users/lila/Projects/Code/otr/tablemutant/build/tablemutant/macos/app/Entitlements.plist                               
           >>> Working Directory:                                                                                                                                  subprocess.py:838
           >>>     /Users/lila/Projects/Code/otr/tablemutant                                                                                                       subprocess.py:838
           >>> Working Directory:                                                                                                                                  subprocess.py:838
           >>>     /Users/lila/Projects/Code/otr/tablemutant                                                                                                       subprocess.py:838
           Signing build/tablemutant/macos/app/TableMutant.app/Contents/Resources/app_packages/sklearn/utils/_vector_sentinel.cpython-312-darwin.so                  __init__.py:719
                                                                                                                                                                   subprocess.py:838
           >>> Running Command:                                                                                                                                    subprocess.py:838
           >>>     codesign                                                                                                                                        subprocess.py:838
           /Users/lila/Projects/Code/otr/tablemutant/build/tablemutant/macos/app/TableMutant.app/Contents/Resources/app_packages/sklearn/utils/_vector_sentinel.cp                  
           ython-312-darwin.so --sign - --force --entitlements /Users/lila/Projects/Code/otr/tablemutant/build/tablemutant/macos/app/Entitlements.plist                             
           >>> Working Directory:                                                                                                                                  subprocess.py:838
           >>>     /Users/lila/Projects/Code/otr/tablemutant                                                                                                       subprocess.py:838
           Signing build/tablemutant/macos/app/TableMutant.app/Contents/Resources/app_packages/sklearn/utils/_typedefs.cpython-312-darwin.so                         __init__.py:719
                                                                                                                                                                   subprocess.py:838
           >>> Running Command:                                                                                                                                    subprocess.py:838
           >>>     codesign                                                                                                                                        subprocess.py:838
           /Users/lila/Projects/Code/otr/tablemutant/build/tablemutant/macos/app/TableMutant.app/Contents/Resources/app_packages/sklearn/utils/_typedefs.cpython-3                  
           12-darwin.so --sign - --force --entitlements /Users/lila/Projects/Code/otr/tablemutant/build/tablemutant/macos/app/Entitlements.plist                                    
           >>> Working Directory:                                                                                                                                  subprocess.py:838
           >>>     /Users/lila/Projects/Code/otr/tablemutant                                                                                                       subprocess.py:838
           Signing build/tablemutant/macos/app/TableMutant.app/Contents/Resources/app_packages/sklearn/utils/_sorting.cpython-312-darwin.so                          __init__.py:719
                                                                                                                                                                   subprocess.py:838
           >>> Running Command:                                                                                                                                    subprocess.py:838
           >>>     codesign                                                                                                                                        subprocess.py:838
           /Users/lila/Projects/Code/otr/tablemutant/build/tablemutant/macos/app/TableMutant.app/Contents/Resources/app_packages/sklearn/utils/_sorting.cpython-31                  
           2-darwin.so --sign - --force --entitlements /Users/lila/Projects/Code/otr/tablemutant/build/tablemutant/macos/app/Entitlements.plist                                     
           >>> Working Directory:                                                                                                                                  subprocess.py:838
           >>>     /Users/lila/Projects/Code/otr/tablemutant                                                                                                       subprocess.py:838
           Signing build/tablemutant/macos/app/TableMutant.app/Contents/Resources/app_packages/sklearn/utils/_openmp_helpers.cpython-312-darwin.so                   __init__.py:719
           Signing build/tablemutant/macos/app/TableMutant.app/Contents/Resources/app_packages/sklearn/utils/_random.cpython-312-darwin.so                           __init__.py:719
           Signing build/tablemutant/macos/app/TableMutant.app/Contents/Resources/app_packages/sklearn/utils/_seq_dataset.cpython-312-darwin.so                      __init__.py:719
[19:59:56]                                                                                                                                                         subprocess.py:838
           Signing build/tablemutant/macos/app/TableMutant.app/Contents/Resources/app_packages/sklearn/utils/_heap.cpython-312-darwin.so                             __init__.py:719
           Signing build/tablemutant/macos/app/TableMutant.app/Contents/Resources/app_packages/sklearn/utils/_fast_dict.cpython-312-darwin.so                        __init__.py:719
           Signing build/tablemutant/macos/app/TableMutant.app/Contents/Resources/app_packages/sklearn/utils/_cython_blas.cpython-312-darwin.so                      __init__.py:719
           Signing build/tablemutant/macos/app/TableMutant.app/Contents/Resources/app_packages/sklearn/utils/_isfinite.cpython-312-darwin.so                         __init__.py:719
                                                                                                                                                                   subprocess.py:838
                                                                                                                                                                   subprocess.py:838
                                                                                                                                                                   subprocess.py:838
                                                                                                                                                                   subprocess.py:838
                                                                                                                                                                   subprocess.py:838
           >>> Running Command:                                                                                                                                    subprocess.py:838
           >>> Running Command:                                                                                                                                    subprocess.py:838
           >>> Running Command:                                                                                                                                    subprocess.py:838
                                                                                                                                                                   subprocess.py:838
           >>> Running Command:                                                                                                                                    subprocess.py:838
           >>> Running Command:                                                                                                                                    subprocess.py:838
           >>> Running Command:                                                                                                                                    subprocess.py:838
           >>>     codesign                                                                                                                                        subprocess.py:838
           /Users/lila/Projects/Code/otr/tablemutant/build/tablemutant/macos/app/TableMutant.app/Contents/Resources/app_packages/sklearn/utils/_random.cpython-312                  
           -darwin.so --sign - --force --entitlements /Users/lila/Projects/Code/otr/tablemutant/build/tablemutant/macos/app/Entitlements.plist                                      
           >>> Running Command:                                                                                                                                    subprocess.py:838
           >>>     codesign                                                                                                                                        subprocess.py:838
           /Users/lila/Projects/Code/otr/tablemutant/build/tablemutant/macos/app/TableMutant.app/Contents/Resources/app_packages/sklearn/utils/_heap.cpython-312-d                  
           arwin.so --sign - --force --entitlements /Users/lila/Projects/Code/otr/tablemutant/build/tablemutant/macos/app/Entitlements.plist                                        
           >>>     codesign                                                                                                                                        subprocess.py:838
           /Users/lila/Projects/Code/otr/tablemutant/build/tablemutant/macos/app/TableMutant.app/Contents/Resources/app_packages/sklearn/utils/_seq_dataset.cpytho                  
           n-312-darwin.so --sign - --force --entitlements /Users/lila/Projects/Code/otr/tablemutant/build/tablemutant/macos/app/Entitlements.plist                                 
           >>>     codesign                                                                                                                                        subprocess.py:838
           /Users/lila/Projects/Code/otr/tablemutant/build/tablemutant/macos/app/TableMutant.app/Contents/Resources/app_packages/sklearn/utils/_cython_blas.cpytho                  
           n-312-darwin.so --sign - --force --entitlements /Users/lila/Projects/Code/otr/tablemutant/build/tablemutant/macos/app/Entitlements.plist                                 
           >>>     codesign                                                                                                                                        subprocess.py:838
           /Users/lila/Projects/Code/otr/tablemutant/build/tablemutant/macos/app/TableMutant.app/Contents/Resources/app_packages/sklearn/utils/_openmp_helpers.cpy                  
           thon-312-darwin.so --sign - --force --entitlements /Users/lila/Projects/Code/otr/tablemutant/build/tablemutant/macos/app/Entitlements.plist                              
           >>>     codesign                                                                                                                                        subprocess.py:838
           /Users/lila/Projects/Code/otr/tablemutant/build/tablemutant/macos/app/TableMutant.app/Contents/Resources/app_packages/sklearn/utils/_fast_dict.cpython-                  
           312-darwin.so --sign - --force --entitlements /Users/lila/Projects/Code/otr/tablemutant/build/tablemutant/macos/app/Entitlements.plist                                   
           >>>     codesign                                                                                                                                        subprocess.py:838
           /Users/lila/Projects/Code/otr/tablemutant/build/tablemutant/macos/app/TableMutant.app/Contents/Resources/app_packages/sklearn/utils/_isfinite.cpython-3                  
           12-darwin.so --sign - --force --entitlements /Users/lila/Projects/Code/otr/tablemutant/build/tablemutant/macos/app/Entitlements.plist                                    
           >>> Working Directory:                                                                                                                                  subprocess.py:838
           >>> Working Directory:                                                                                                                                  subprocess.py:838
           >>> Working Directory:                                                                                                                                  subprocess.py:838
           >>> Working Directory:                                                                                                                                  subprocess.py:838
           >>> Working Directory:                                                                                                                                  subprocess.py:838
           >>> Working Directory:                                                                                                                                  subprocess.py:838
           >>> Working Directory:                                                                                                                                  subprocess.py:838
           >>>     /Users/lila/Projects/Code/otr/tablemutant                                                                                                       subprocess.py:838
           >>>     /Users/lila/Projects/Code/otr/tablemutant                                                                                                       subprocess.py:838
           >>>     /Users/lila/Projects/Code/otr/tablemutant                                                                                                       subprocess.py:838
           >>>     /Users/lila/Projects/Code/otr/tablemutant                                                                                                       subprocess.py:838
           >>>     /Users/lila/Projects/Code/otr/tablemutant                                                                                                       subprocess.py:838
           >>>     /Users/lila/Projects/Code/otr/tablemutant                                                                                                       subprocess.py:838
           >>>     /Users/lila/Projects/Code/otr/tablemutant                                                                                                       subprocess.py:838
           >>> Return code: 0                                                                                                                                      subprocess.py:838
                                                                                                                                                                   subprocess.py:838
           >>> Return code: 0                                                                                                                                      subprocess.py:838
                                                                                                                                                                   subprocess.py:838
           >>> Return code: 0                                                                                                                                      subprocess.py:838
                                                                                                                                                                   subprocess.py:838
           >>> Return code: 0                                                                                                                                      subprocess.py:838
                                                                                                                                                                   subprocess.py:838
           >>> Return code: 0                                                                                                                                      subprocess.py:838
                                                                                                                                                                   subprocess.py:838
           >>> Return code: 0                                                                                                                                      subprocess.py:838
                                                                                                                                                                   subprocess.py:838
           >>> Return code: 0                                                                                                                                      subprocess.py:838
                                                                                                                                                                   subprocess.py:838
           >>> Return code: 0                                                                                                                                      subprocess.py:838
                                                                                                                                                                   subprocess.py:838
           >>> Return code: 0                                                                                                                                      subprocess.py:838
                                                                                                                                                                   subprocess.py:838
           >>> Return code: 0                                                                                                                                      subprocess.py:838
                                                                                                                                                                   subprocess.py:838
           >>> Return code: 0                                                                                                                                      subprocess.py:838
                                                                                                                                                                   subprocess.py:838
           >>> Return code: 0                                                                                                                                      subprocess.py:838
                                                                                                                                                                   subprocess.py:838
           >>> Return code: 0                                                                                                                                      subprocess.py:838
                                                                                                                                                                   subprocess.py:838
           >>> Return code: 0                                                                                                                                      subprocess.py:838
                                                                                                                                                                   subprocess.py:838
           Signing build/tablemutant/macos/app/TableMutant.app/Contents/Resources/app_packages/sklearn/tree/_utils.cpython-312-darwin.so                             __init__.py:719
                                                                                                                                                                   subprocess.py:838
           >>> Running Command:                                                                                                                                    subprocess.py:838
           >>>     codesign                                                                                                                                        subprocess.py:838
           /Users/lila/Projects/Code/otr/tablemutant/build/tablemutant/macos/app/TableMutant.app/Contents/Resources/app_packages/sklearn/tree/_utils.cpython-312-d                  
           arwin.so --sign - --force --entitlements /Users/lila/Projects/Code/otr/tablemutant/build/tablemutant/macos/app/Entitlements.plist                                        
           >>> Working Directory:                                                                                                                                  subprocess.py:838
           >>>     /Users/lila/Projects/Code/otr/tablemutant                                                                                                       subprocess.py:838
           Signing build/tablemutant/macos/app/TableMutant.app/Contents/Resources/app_packages/sklearn/tree/_tree.cpython-312-darwin.so                              __init__.py:719
                                                                                                                                                                   subprocess.py:838
           >>> Running Command:                                                                                                                                    subprocess.py:838
           >>>     codesign                                                                                                                                        subprocess.py:838
           /Users/lila/Projects/Code/otr/tablemutant/build/tablemutant/macos/app/TableMutant.app/Contents/Resources/app_packages/sklearn/tree/_tree.cpython-312-da                  
           rwin.so --sign - --force --entitlements /Users/lila/Projects/Code/otr/tablemutant/build/tablemutant/macos/app/Entitlements.plist                                         
           >>> Working Directory:                                                                                                                                  subprocess.py:838
           >>>     /Users/lila/Projects/Code/otr/tablemutant                                                                                                       subprocess.py:838
           Signing build/tablemutant/macos/app/TableMutant.app/Contents/Resources/app_packages/sklearn/tree/_splitter.cpython-312-darwin.so                          __init__.py:719
                                                                                                                                                                   subprocess.py:838
           >>> Running Command:                                                                                                                                    subprocess.py:838
           >>>     codesign                                                                                                                                        subprocess.py:838
           /Users/lila/Projects/Code/otr/tablemutant/build/tablemutant/macos/app/TableMutant.app/Contents/Resources/app_packages/sklearn/tree/_splitter.cpython-31                  
           2-darwin.so --sign - --force --entitlements /Users/lila/Projects/Code/otr/tablemutant/build/tablemutant/macos/app/Entitlements.plist                                     
           Signing build/tablemutant/macos/app/TableMutant.app/Contents/Resources/app_packages/sklearn/tree/_partitioner.cpython-312-darwin.so                       __init__.py:719
                                                                                                                                                                   subprocess.py:838
           >>> Running Command:                                                                                                                                    subprocess.py:838
           >>>     codesign                                                                                                                                        subprocess.py:838
           /Users/lila/Projects/Code/otr/tablemutant/build/tablemutant/macos/app/TableMutant.app/Contents/Resources/app_packages/sklearn/tree/_partitioner.cpython                  
           -312-darwin.so --sign - --force --entitlements /Users/lila/Projects/Code/otr/tablemutant/build/tablemutant/macos/app/Entitlements.plist                                  
[...]
                             ^^^^^^^^^^^^^^^^^^^^^^^^^^^^^^^^^^^^^^^^^^^^^^^^^^^^^^^^^^^^^^^^^^^^^^^^^^^^^^                                                        subprocess.py:195
             File                                                                                                                                                  subprocess.py:195
           "/Users/lila/Projects/Code/otr/tablemutant/build/tablemutant/macos/app/TableMutant.app/Contents/Resources/app_packages/dspy/adapters/chat_adapter.py",                   
           line 47, in __call__                                                                                                                                                     
               return JSONAdapter()(lm, lm_kwargs, signature, demos, inputs)                                                                                       subprocess.py:195
                      ^^^^^^^^^^^^^^^^^^^^^^^^^^^^^^^^^^^^^^^^^^^^^^^^^^^^^^                                                                                       subprocess.py:195
             File                                                                                                                                                  subprocess.py:195
           "/Users/lila/Projects/Code/otr/tablemutant/build/tablemutant/macos/app/TableMutant.app/Contents/Resources/app_packages/dspy/adapters/json_adapter.py",                   
           line 82, in __call__                                                                                                                                                     
               return super().__call__(lm, lm_kwargs, signature, demos, inputs)                                                                                    subprocess.py:195
                      ^^^^^^^^^^^^^^^^^^^^^^^^^^^^^^^^^^^^^^^^^^^^^^^^^^^^^^^^^                                                                                    subprocess.py:195
             File                                                                                                                                                  subprocess.py:195
           "/Users/lila/Projects/Code/otr/tablemutant/build/tablemutant/macos/app/TableMutant.app/Contents/Resources/app_packages/dspy/adapters/chat_adapter.py",                   
           line 46, in __call__                                                                                                                                                     
               raise e                                                                                                                                             subprocess.py:195
             File                                                                                                                                                  subprocess.py:195
           "/Users/lila/Projects/Code/otr/tablemutant/build/tablemutant/macos/app/TableMutant.app/Contents/Resources/app_packages/dspy/adapters/chat_adapter.py",                   
           line 38, in __call__                                                                                                                                                     
               return super().__call__(lm, lm_kwargs, signature, demos, inputs)                                                                                    subprocess.py:195
                      ^^^^^^^^^^^^^^^^^^^^^^^^^^^^^^^^^^^^^^^^^^^^^^^^^^^^^^^^^                                                                                    subprocess.py:195
             File "/Users/lila/Projects/Code/otr/tablemutant/build/tablemutant/macos/app/TableMutant.app/Contents/Resources/app_packages/dspy/adapters/base.py",   subprocess.py:195
           line 127, in __call__                                                                                                                                                    
               outputs = lm(messages=inputs, **lm_kwargs)                                                                                                          subprocess.py:195
                         ^^^^^^^^^^^^^^^^^^^^^^^^^^^^^^^^                                                                                                          subprocess.py:195
             File "/Users/lila/Projects/Code/otr/tablemutant/build/tablemutant/macos/app/TableMutant.app/Contents/Resources/app_packages/dspy/utils/callback.py",  subprocess.py:195
           line 326, in sync_wrapper                                                                                                                                                
               return fn(instance, *args, **kwargs)                                                                                                                subprocess.py:195
                      ^^^^^^^^^^^^^^^^^^^^^^^^^^^^^                                                                                                                subprocess.py:195
             File "/Users/lila/Projects/Code/otr/tablemutant/build/tablemutant/macos/app/TableMutant.app/Contents/Resources/app_packages/dspy/clients/base_lm.py", subprocess.py:195
           line 85, in __call__                                                                                                                                                     
               response = self.forward(prompt=prompt, messages=messages, **kwargs)                                                                                 subprocess.py:195
                          ^^^^^^^^^^^^^^^^^^^^^^^^^^^^^^^^^^^^^^^^^^^^^^^^^^^^^^^^                                                                                 subprocess.py:195
             File "/Users/lila/Projects/Code/otr/tablemutant/build/tablemutant/macos/app/TableMutant.app/Contents/Resources/app_packages/dspy/clients/lm.py", line subprocess.py:195
           133, in forward                                                                                                                                                          
               results = completion(                                                                                                                               subprocess.py:195
                         ^^^^^^^^^^^                                                                                                                               subprocess.py:195
             File "/Users/lila/Projects/Code/otr/tablemutant/build/tablemutant/macos/app/TableMutant.app/Contents/Resources/app_packages/dspy/clients/cache.py",   subprocess.py:195
           line 234, in sync_wrapper                                                                                                                                                
               result = fn(*args, **kwargs)                                                                                                                        subprocess.py:195
                        ^^^^^^^^^^^^^^^^^^^                                                                                                                        subprocess.py:195
             File "/Users/lila/Projects/Code/otr/tablemutant/build/tablemutant/macos/app/TableMutant.app/Contents/Resources/app_packages/dspy/clients/lm.py", line subprocess.py:195
           318, in litellm_completion                                                                                                                                               
               return litellm.completion(                                                                                                                          subprocess.py:195
                      ^^^^^^^^^^^^^^^^^^^                                                                                                                          subprocess.py:195
             File "/Users/lila/Projects/Code/otr/tablemutant/build/tablemutant/macos/app/TableMutant.app/Contents/Resources/app_packages/litellm/utils.py", line   subprocess.py:195
           1324, in wrapper                                                                                                                                                         
               return litellm.completion_with_retries(*args, **kwargs)                                                                                             subprocess.py:195
                      ^^^^^^^^^^^^^^^^^^^^^^^^^^^^^^^^^^^^^^^^^^^^^^^^                                                                                             subprocess.py:195
             File "/Users/lila/Projects/Code/otr/tablemutant/build/tablemutant/macos/app/TableMutant.app/Contents/Resources/app_packages/litellm/main.py", line    subprocess.py:195
           3532, in completion_with_retries                                                                                                                                         
               return retryer(original_function, *args, **kwargs)                                                                                                  subprocess.py:195
                      ^^^^^^^^^^^^^^^^^^^^^^^^^^^^^^^^^^^^^^^^^^^                                                                                                  subprocess.py:195
             File "/Users/lila/Projects/Code/otr/tablemutant/build/tablemutant/macos/app/TableMutant.app/Contents/Resources/app_packages/tenacity/__init__.py",    subprocess.py:195
           line 477, in __call__                                                                                                                                                    
               do = self.iter(retry_state=retry_state)                                                                                                             subprocess.py:195
                    ^^^^^^^^^^^^^^^^^^^^^^^^^^^^^^^^^^                                                                                                             subprocess.py:195
             File "/Users/lila/Projects/Code/otr/tablemutant/build/tablemutant/macos/app/TableMutant.app/Contents/Resources/app_packages/tenacity/__init__.py",    subprocess.py:195
           line 378, in iter                                                                                                                                                        
               result = action(retry_state)                                                                                                                        subprocess.py:195
                        ^^^^^^^^^^^^^^^^^^^                                                                                                                        subprocess.py:195
             File "/Users/lila/Projects/Code/otr/tablemutant/build/tablemutant/macos/app/TableMutant.app/Contents/Resources/app_packages/tenacity/__init__.py",    subprocess.py:195
           line 420, in exc_check                                                                                                                                                   
               raise retry_exc.reraise()                                                                                                                           subprocess.py:195
                     ^^^^^^^^^^^^^^^^^^^                                                                                                                           subprocess.py:195
             File "/Users/lila/Projects/Code/otr/tablemutant/build/tablemutant/macos/app/TableMutant.app/Contents/Resources/app_packages/tenacity/__init__.py",    subprocess.py:195
           line 187, in reraise                                                                                                                                                     
               raise self.last_attempt.result()                                                                                                                    subprocess.py:195
                     ^^^^^^^^^^^^^^^^^^^^^^^^^^                                                                                                                    subprocess.py:195
             File                                                                                                                                                  subprocess.py:195
           "/Users/lila/Projects/Code/otr/tablemutant/build/tablemutant/macos/app/TableMutant.app/Contents/Frameworks/Python.framework/Versions/3.12/lib/python3.1                  
           2/concurrent/futures/_base.py", line 449, in result                                                                                                                      
               return self.__get_result()                                                                                                                          subprocess.py:195
                      ^^^^^^^^^^^^^^^^^^^                                                                                                                          subprocess.py:195
             File                                                                                                                                                  subprocess.py:195
           "/Users/lila/Projects/Code/otr/tablemutant/build/tablemutant/macos/app/TableMutant.app/Contents/Frameworks/Python.framework/Versions/3.12/lib/python3.1                  
           2/concurrent/futures/_base.py", line 401, in __get_result                                                                                                                
               raise self._exception                                                                                                                               subprocess.py:195
             File "/Users/lila/Projects/Code/otr/tablemutant/build/tablemutant/macos/app/TableMutant.app/Contents/Resources/app_packages/tenacity/__init__.py",    subprocess.py:195
           line 480, in __call__                                                                                                                                                    
               result = fn(*args, **kwargs)                                                                                                                        subprocess.py:195
                        ^^^^^^^^^^^^^^^^^^^                                                                                                                        subprocess.py:195
             File "/Users/lila/Projects/Code/otr/tablemutant/build/tablemutant/macos/app/TableMutant.app/Contents/Resources/app_packages/litellm/utils.py", line   subprocess.py:195
           1344, in wrapper                                                                                                                                                         
               raise e                                                                                                                                             subprocess.py:195
             File "/Users/lila/Projects/Code/otr/tablemutant/build/tablemutant/macos/app/TableMutant.app/Contents/Resources/app_packages/litellm/utils.py", line   subprocess.py:195
           1219, in wrapper                                                                                                                                                         
               result = original_function(*args, **kwargs)                                                                                                         subprocess.py:195
                        ^^^^^^^^^^^^^^^^^^^^^^^^^^^^^^^^^^                                                                                                         subprocess.py:195
             File "/Users/lila/Projects/Code/otr/tablemutant/build/tablemutant/macos/app/TableMutant.app/Contents/Resources/app_packages/litellm/main.py", line    subprocess.py:195
           3494, in completion                                                                                                                                                      
               raise exception_type(                                                                                                                               subprocess.py:195
                     ^^^^^^^^^^^^^^^                                                                                                                               subprocess.py:195
[20:01:06]   File                                                                                                                                                  subprocess.py:195
           "/Users/lila/Projects/Code/otr/tablemutant/build/tablemutant/macos/app/TableMutant.app/Contents/Resources/app_packages/litellm/litellm_core_utils/excep                  
           tion_mapping_utils.py", line 2301, in exception_type                                                                                                                     
               raise e                                                                                                                                             subprocess.py:195
             File                                                                                                                                                  subprocess.py:195
           "/Users/lila/Projects/Code/otr/tablemutant/build/tablemutant/macos/app/TableMutant.app/Contents/Resources/app_packages/litellm/litellm_core_utils/excep                  
           tion_mapping_utils.py", line 501, in exception_type                                                                                                                      
               raise InternalServerError(                                                                                                                          subprocess.py:195
           litellm.exceptions.InternalServerError: litellm.InternalServerError: InternalServerError: OpenAIException - Connection error.                           subprocess.py:195
           DEBUG: calculate_tokens_text - generation_start_time: 1756522846.644309, total_tokens: 0                                                                subprocess.py:195
           DEBUG: calculate_tokens_text fallback result: Tokens: 0 | Speed: -- tokens/sec                                                                          subprocess.py:195
           DEBUG: Progress update - completed: 0/5, elapsed: 19.3s                                                                                                 subprocess.py:195
           DEBUG: Token history length: 0, tokens: 0                                                                                                               subprocess.py:195
           DEBUG: Time text: Calculating time estimate...                                                                                                          subprocess.py:195
           DEBUG: Tokens text: Tokens: 0 | Speed: -- tokens/sec                                                                                                    subprocess.py:195
[20:01:08] Stopping...                                                                                                                                             subprocess.py:768
                                                                                                                                                                   subprocess.py:195
           Saving log... started                                                                                                                                      console.py:433
